Version 4
SHEET 1 880 1024
WIRE 416 128 352 128
WIRE 128 176 80 176
WIRE 240 176 208 176
WIRE 256 176 240 176
WIRE 352 176 352 128
WIRE 352 176 336 176
WIRE 368 176 352 176
WIRE 496 176 448 176
WIRE 80 208 80 176
WIRE 368 256 368 240
WIRE 240 272 240 176
WIRE 336 272 240 272
WIRE 496 288 496 176
WIRE 496 288 400 288
WIRE 576 288 496 288
WIRE 688 288 640 288
WIRE 80 304 32 304
WIRE 192 304 144 304
WIRE 336 304 192 304
WIRE 192 320 192 304
WIRE 368 352 368 320
WIRE 192 432 192 400
WIRE 464 704 288 704
WIRE 80 800 16 800
WIRE 176 800 144 800
WIRE 352 800 352 784
WIRE 288 816 288 704
WIRE 320 816 288 816
WIRE 464 832 464 704
WIRE 464 832 384 832
WIRE 624 832 464 832
WIRE 272 848 224 848
WIRE 320 848 272 848
WIRE 272 896 272 848
WIRE 352 896 352 864
WIRE 176 912 176 880
WIRE 272 1008 272 976
FLAG 192 432 0
FLAG 80 208 0
FLAG 32 304 input
FLAG 688 288 output
FLAG 368 240 +9V
FLAG 368 352 -9V
FLAG 352 784 +9V
FLAG 352 896 -9V
FLAG 176 912 0
FLAG 272 1008 0
FLAG 16 800 input
FLAG 624 832 output
SYMBOL OP07 368 224 R0
SYMATTR InstName U1
SYMBOL polcap 144 288 R90
WINDOW 0 0 32 VBottom 2
WINDOW 3 32 32 VTop 2
SYMATTR InstName C1
SYMATTR Value 2.2µ
SYMBOL res 176 304 R0
SYMATTR InstName R1
SYMATTR Value 2.2 M
SYMBOL res 224 160 R90
WINDOW 0 0 56 VBottom 2
WINDOW 3 32 56 VTop 2
SYMATTR InstName R2
SYMATTR Value 1k
SYMBOL pot 352 192 R270
WINDOW 0 106 12 VRight 2
WINDOW 3 82 11 VRight 2
SYMATTR InstName Gain
SYMATTR Value Rtot=50K wiper=.5
SYMBOL res 352 160 R90
WINDOW 0 0 56 VBottom 2
WINDOW 3 32 56 VTop 2
SYMATTR InstName R3
SYMATTR Value 1k
SYMBOL polcap 640 272 R90
WINDOW 0 0 32 VBottom 2
WINDOW 3 32 32 VTop 2
SYMATTR InstName C2
SYMATTR Value 2.2µ
SYMBOL OP07 352 768 R0
SYMATTR InstName U2
SYMBOL polcap 144 784 R90
WINDOW 0 0 32 VBottom 2
WINDOW 3 32 32 VTop 2
SYMATTR InstName C3
SYMATTR Value 47µ
SYMBOL pot 160 784 R0
WINDOW 3 -139 166 Left 2
SYMATTR InstName U3
SYMATTR Value Rtot=1K wiper=.5
SYMBOL res 256 880 R0
SYMATTR InstName R4
SYMATTR Value 2.2m
TEXT -64 56 Left 4 ;Etapa de entrada
TEXT -48 688 Left 4 ;Etapa de salida
