Version 4
SHEET 1 3140 1232
WIRE 960 -144 960 -208
WIRE 1104 -144 1104 -208
WIRE 704 -128 704 -208
WIRE 1728 -128 1728 -208
WIRE 464 -16 464 -48
WIRE 560 -16 560 -48
WIRE 1104 -16 1104 -64
WIRE 1248 -16 1104 -16
WIRE 1104 0 1104 -16
WIRE -272 16 -272 -32
WIRE 960 80 960 -64
WIRE 1056 80 960 80
WIRE 464 96 464 64
WIRE 560 96 560 64
WIRE 960 112 960 80
WIRE -272 144 -272 96
WIRE -160 144 -272 144
WIRE -272 176 -272 144
WIRE 1008 192 1008 160
WIRE 1008 192 960 192
WIRE 960 208 960 192
WIRE 1104 256 1104 96
WIRE 1104 256 -48 256
WIRE 1952 256 1104 256
WIRE -272 288 -272 256
WIRE -224 288 -224 224
WIRE -224 288 -272 288
WIRE -272 304 -272 288
WIRE 1104 352 1104 256
WIRE 1104 352 928 352
WIRE 1168 368 1168 320
WIRE 2192 368 2192 320
WIRE -48 416 -48 256
WIRE 704 416 704 -48
WIRE 928 416 928 352
WIRE 1728 416 1728 -48
WIRE 1952 416 1952 256
WIRE -304 496 -336 496
WIRE -160 496 -160 144
WIRE -160 496 -240 496
WIRE -96 496 -160 496
WIRE 544 496 416 496
WIRE 656 496 608 496
WIRE 1168 496 1168 448
WIRE 1168 496 976 496
WIRE 1568 496 1440 496
WIRE 1680 496 1632 496
WIRE 2192 496 2192 448
WIRE 2192 496 2000 496
WIRE 1168 528 1168 496
WIRE 2192 528 2192 496
WIRE 704 560 704 512
WIRE 928 560 928 512
WIRE 1728 560 1728 512
WIRE 1952 560 1952 512
WIRE -224 608 -224 576
WIRE -160 608 -224 608
WIRE 528 608 528 576
WIRE 592 608 528 608
WIRE 768 608 752 608
WIRE 1552 608 1552 576
WIRE 1616 608 1552 608
WIRE 1792 608 1776 608
WIRE -224 624 -224 608
WIRE -48 624 -48 512
WIRE 0 624 -48 624
WIRE 96 624 64 624
WIRE 528 624 528 608
WIRE 1552 624 1552 608
WIRE 1168 640 1168 608
WIRE 1216 640 1216 576
WIRE 1216 640 1168 640
WIRE 2192 640 2192 608
WIRE 2240 640 2240 576
WIRE 2240 640 2192 640
WIRE 96 656 96 624
WIRE 1168 656 1168 640
WIRE 2192 656 2192 640
WIRE -160 672 -160 608
WIRE -160 672 -176 672
WIRE 592 672 592 608
WIRE 592 672 576 672
WIRE 704 672 704 640
WIRE 768 672 768 608
WIRE 768 672 704 672
WIRE 928 672 928 640
WIRE 928 672 768 672
WIRE 976 672 976 608
WIRE 976 672 928 672
WIRE 1616 672 1616 608
WIRE 1616 672 1600 672
WIRE 1728 672 1728 640
WIRE 1792 672 1792 608
WIRE 1792 672 1728 672
WIRE 1952 672 1952 640
WIRE 1952 672 1792 672
WIRE 2000 672 2000 608
WIRE 2000 672 1952 672
WIRE -224 736 -224 704
WIRE -160 736 -224 736
WIRE 528 736 528 704
WIRE 592 736 528 736
WIRE 1552 736 1552 704
WIRE 1616 736 1552 736
WIRE -224 752 -224 736
WIRE -48 752 -48 624
WIRE 96 752 96 736
WIRE 144 752 144 704
WIRE 144 752 96 752
WIRE 528 752 528 736
WIRE 704 752 704 672
WIRE 1552 752 1552 736
WIRE 1728 752 1728 672
WIRE 96 784 96 752
WIRE -160 832 -160 736
WIRE -160 832 -176 832
WIRE -96 832 -160 832
WIRE 592 832 592 736
WIRE 592 832 576 832
WIRE 656 832 592 832
WIRE 1616 832 1616 736
WIRE 1616 832 1600 832
WIRE 1680 832 1616 832
WIRE -224 896 -224 848
WIRE -48 896 -48 848
WIRE 528 896 528 848
WIRE 704 896 704 848
WIRE 1552 896 1552 848
WIRE 1728 896 1728 848
FLAG 464 96 0
FLAG 464 -48 Vdd
FLAG 1104 -208 Vdd
FLAG 960 208 0
FLAG 560 96 0
FLAG 560 -48 Vss
FLAG 528 576 Vdd
FLAG 528 896 Vss
FLAG 704 896 Vss
FLAG 704 -208 Vdd
FLAG 416 496 input
FLAG 1248 -16 output
FLAG 1168 656 0
FLAG 1168 320 Vdd
FLAG 1552 576 Vdd
FLAG 1552 896 Vss
FLAG 1728 896 Vss
FLAG 1728 -208 Vdd
FLAG 1440 496 input
FLAG 2192 656 0
FLAG 2192 320 Vdd
FLAG -224 576 Vdd
FLAG -224 896 Vss
FLAG -48 896 Vss
FLAG -336 496 input
FLAG 96 784 0
FLAG 960 -208 Vdd
FLAG -272 304 0
FLAG -272 -32 Vdd
SYMBOL voltage 464 -32 R0
WINDOW 123 0 0 Left 2
WINDOW 39 0 0 Left 2
SYMATTR InstName Vdd
SYMATTR Value 9
SYMBOL res 1088 -160 R0
SYMATTR InstName Rd
SYMATTR Value 2k
SYMBOL nmos 1056 0 R0
SYMATTR InstName Mcasc
SYMATTR Value 2n7000
SYMATTR Prefix X
SYMBOL voltage 560 -32 R0
WINDOW 123 0 0 Left 2
WINDOW 39 0 0 Left 2
SYMATTR InstName Vss
SYMATTR Value -9
SYMBOL nmos 656 416 R0
SYMATTR InstName M4
SYMATTR Value 2n7000
SYMATTR Prefix X
SYMBOL nmos 656 752 R0
SYMATTR InstName Mmirror4
SYMATTR Value 2n7000
SYMATTR Prefix X
SYMBOL nmos 576 752 M0
SYMATTR InstName Mmirror3
SYMATTR Value 2n7000
SYMATTR Prefix X
SYMBOL nmos 976 416 M0
SYMATTR InstName M2
SYMATTR Value 2n7000
SYMATTR Prefix X
SYMBOL res 688 -144 R0
SYMATTR InstName R4
SYMATTR Value 1k
SYMBOL pot 912 544 R0
WINDOW 3 -28 206 Left 2
SYMATTR Value Rf22=1K wiper=.5
SYMATTR InstName U1
SYMBOL pot 688 544 R0
WINDOW 3 28 160 Left 2
SYMATTR Value Rf21=1K wiper=.5
SYMATTR InstName U2
SYMBOL res 1152 352 R0
SYMATTR InstName R2
SYMATTR Value 500k
SYMBOL pot 1152 512 R0
WINDOW 3 -102 179 Left 2
SYMATTR Value Rg2=500K wiper=.5
SYMATTR InstName U3
SYMBOL pot 512 608 R0
WINDOW 3 -217 35 Left 2
SYMATTR Value Rm2=20K wiper=.5
SYMATTR InstName U4
SYMBOL cap 608 480 R90
WINDOW 0 0 32 VBottom 2
WINDOW 3 32 32 VTop 2
SYMATTR InstName Cin2
SYMATTR Value 680n
SYMBOL nmos 1680 416 R0
SYMATTR InstName M5
SYMATTR Value 2n7000
SYMATTR Prefix X
SYMBOL nmos 1680 752 R0
SYMATTR InstName Mmirror6
SYMATTR Value 2n7000
SYMATTR Prefix X
SYMBOL nmos 1600 752 M0
SYMATTR InstName Mmirror5
SYMATTR Value 2n7000
SYMATTR Prefix X
SYMBOL nmos 2000 416 M0
SYMATTR InstName M3
SYMATTR Value 2n7000
SYMATTR Prefix X
SYMBOL res 1712 -144 R0
SYMATTR InstName R5
SYMATTR Value 1k
SYMBOL pot 1936 544 R0
WINDOW 3 -29 186 Left 2
SYMATTR Value Rf32=1K wiper=.5
SYMATTR InstName U5
SYMBOL pot 1712 544 R0
WINDOW 3 23 154 Left 2
SYMATTR Value Rf31=1K wiper=.5
SYMATTR InstName U6
SYMBOL res 2176 352 R0
SYMATTR InstName R3
SYMATTR Value 500k
SYMBOL pot 2176 512 R0
WINDOW 3 -130 173 Left 2
SYMATTR Value Rg3=500K wiper=.5
SYMATTR InstName U7
SYMBOL pot 1536 608 R0
WINDOW 3 -217 35 Left 2
SYMATTR Value Rm1=20K wiper=.5
SYMATTR InstName U8
SYMBOL cap 1632 480 R90
WINDOW 0 0 32 VBottom 2
WINDOW 3 32 32 VTop 2
SYMATTR InstName C2
SYMATTR Value 680n
SYMBOL nmos -96 416 R0
SYMATTR InstName M1
SYMATTR Value 2n7000
SYMATTR Prefix X
SYMBOL nmos -96 752 R0
SYMATTR InstName Mmirror2
SYMATTR Value 2n7000
SYMATTR Prefix X
SYMBOL nmos -176 752 M0
SYMATTR InstName Mmirror1
SYMATTR Value 2n7000
SYMATTR Prefix X
SYMBOL pot -240 608 R0
WINDOW 3 26 112 Left 2
SYMATTR Value Rm1=20K wiper=.5
SYMATTR InstName U10
SYMBOL cap -240 480 R90
WINDOW 0 0 32 VBottom 2
WINDOW 3 32 32 VTop 2
SYMATTR InstName Cin1
SYMATTR Value 680n
SYMBOL polcap 0 640 R270
WINDOW 0 32 32 VTop 2
WINDOW 3 0 32 VBottom 2
SYMATTR InstName C1
SYMATTR Value 47µ
SYMBOL pot 80 640 R0
SYMATTR InstName U9
SYMATTR Value Rf1=10K wiper=.5
SYMBOL pot 944 96 R0
WINDOW 3 -80 140 Left 2
SYMATTR InstName U11
SYMATTR Value Rcasc=500K wiper=.5
SYMBOL res 944 -160 R0
SYMATTR InstName R6
SYMATTR Value 500k
SYMBOL res -288 0 R0
SYMATTR InstName R1
SYMATTR Value 500k
SYMBOL pot -288 160 R0
WINDOW 3 -41 175 Left 2
SYMATTR Value Rg1=500K wiper=.5
SYMATTR InstName U12
TEXT -304 976 Left 4 ;Rama 1: gm positivo
TEXT 448 984 Left 4 ;Rama 2: gm negativo
TEXT 1464 984 Left 4 ;Rama 3: gm negativo
TEXT 1232 -112 Left 4 ;Cascodo
