Version 4
SHEET 1 2196 972
WIRE 272 16 272 -32
WIRE 576 16 576 -32
WIRE 784 16 784 -32
WIRE 784 144 784 96
WIRE 928 144 784 144
WIRE 784 160 784 144
WIRE 576 240 576 96
WIRE 736 240 576 240
WIRE 576 288 576 240
WIRE 640 336 624 336
WIRE 784 336 784 256
WIRE 864 336 784 336
WIRE 576 384 576 368
WIRE 640 384 640 336
WIRE 640 384 576 384
WIRE 784 400 784 336
WIRE 576 416 576 384
WIRE 128 480 0 480
WIRE 272 480 272 96
WIRE 272 480 192 480
WIRE 736 480 272 480
WIRE 272 512 272 480
WIRE 784 528 784 496
WIRE 928 528 784 528
WIRE 928 544 928 528
WIRE 336 560 320 560
WIRE 272 608 272 592
WIRE 336 608 336 560
WIRE 336 608 272 608
WIRE 592 608 592 576
WIRE 672 608 592 608
WIRE 592 624 592 608
WIRE 928 624 928 608
WIRE 272 640 272 608
WIRE 672 672 672 608
WIRE 672 672 640 672
WIRE 992 672 976 672
WIRE 592 736 592 704
WIRE 672 736 592 736
WIRE 928 736 928 704
WIRE 992 736 992 672
WIRE 992 736 928 736
WIRE 592 752 592 736
WIRE 784 752 784 528
WIRE 928 752 928 736
WIRE 32 784 32 752
WIRE 144 784 144 752
WIRE 672 832 672 736
WIRE 672 832 640 832
WIRE 736 832 672 832
WIRE 32 896 32 864
WIRE 144 896 144 864
WIRE 592 896 592 848
WIRE 784 896 784 848
FLAG 144 896 0
FLAG 144 752 Vdd
FLAG 784 -32 Vdd
FLAG 928 752 0
FLAG 0 480 Input
FLAG 32 896 0
FLAG 32 752 Vss
FLAG 592 576 Vdd
FLAG 592 896 Vss
FLAG 784 896 Vss
FLAG 576 -32 Vdd
FLAG 576 416 0
FLAG 272 640 0
FLAG 272 -32 Vdd
FLAG 928 144 Output
FLAG 864 336 V1
SYMBOL voltage 144 768 R0
WINDOW 123 0 0 Left 2
WINDOW 39 0 0 Left 2
SYMATTR InstName Vds
SYMATTR Value 9
SYMBOL res 768 0 R0
SYMATTR InstName Rd1
SYMATTR Value 2k
SYMBOL nmos 736 400 R0
SYMATTR InstName M1
SYMATTR Value 2n7000
SYMATTR Prefix X
SYMBOL nmos 736 160 R0
SYMATTR InstName M2
SYMATTR Value 2n7000
SYMATTR Prefix X
SYMBOL cap 912 544 R0
SYMATTR InstName Cf
SYMATTR Value 47µ
SYMBOL voltage 32 768 R0
WINDOW 123 0 0 Left 2
WINDOW 39 0 0 Left 2
SYMATTR InstName Vds1
SYMATTR Value -9
SYMBOL nmos 736 752 R0
SYMATTR InstName M3
SYMATTR Value 2n7000
SYMATTR Prefix X
SYMBOL nmos 640 752 M0
SYMATTR InstName M4
SYMATTR Value 2n7000
SYMATTR Prefix X
SYMBOL res 560 0 R0
SYMATTR InstName R3
SYMATTR Value 500k
SYMBOL res 256 0 R0
SYMATTR InstName R1
SYMATTR Value 500k
SYMBOL pot 256 496 R0
SYMATTR InstName R2
SYMATTR Value R2=500K wiper=.5
SYMBOL pot 560 272 R0
WINDOW 3 -216 49 Left 2
SYMATTR Value R4=500K wiper=.5
SYMATTR InstName R4
SYMBOL cap 192 464 R90
WINDOW 0 0 32 VBottom 2
WINDOW 3 32 32 VTop 2
SYMATTR InstName Cin
SYMATTR Value 680n
SYMBOL pot 912 608 R0
WINDOW 0 34 86 Left 2
WINDOW 3 7 179 Left 2
SYMATTR InstName Rf
SYMATTR Value Rf=2K wiper=.5
SYMBOL pot 576 608 R0
SYMATTR InstName Rd2
SYMATTR Value Rd2=20K wiper=.5
TEXT -160 -184 Left 2 ;.dc Vgs -5 5 0.001
TEXT -160 -216 Left 2 !.include 2N7000.REV0.SP
TEXT -160 -136 Left 2 ;.tran 0 10m 5m
TEXT -192 -16 Left 2 ;PULSE(0 1 0 .5m .5m 1e-10 1m 1000)
TEXT -152 -72 Left 2 !.op
TEXT -160 -104 Left 2 !.step param v list 0 2 3
