Version 4
SHEET 1 928 704
WIRE -160 -112 -160 -144
WIRE -32 -112 -32 -144
WIRE 432 -80 432 -112
WIRE 432 -64 432 -80
WIRE -160 0 -160 -32
WIRE -32 0 -32 -32
WIRE 112 48 112 0
WIRE 112 176 112 128
WIRE 224 176 112 176
WIRE 112 192 112 176
WIRE 432 192 432 16
WIRE 224 272 224 176
WIRE 224 272 160 272
WIRE 384 272 224 272
WIRE 112 368 112 288
WIRE 432 384 432 288
FLAG -160 0 0
FLAG -160 -144 Vdd
FLAG 112 0 Vdd
FLAG -32 0 0
FLAG -32 -144 Vss
FLAG 112 368 Vss
FLAG 432 384 Vss
FLAG 432 -192 Vdd
SYMBOL nmos 384 192 R0
SYMATTR InstName M1
SYMATTR Value 2n7000
SYMATTR Prefix X
SYMBOL voltage -160 -128 R0
WINDOW 123 0 0 Left 2
WINDOW 39 0 0 Left 2
SYMATTR InstName Vds
SYMATTR Value 15
SYMBOL nmos 160 192 M0
SYMATTR InstName M2
SYMATTR Value 2n7000
SYMATTR Prefix X
SYMBOL res 96 32 R0
SYMATTR InstName R1
SYMATTR Value 28k
SYMBOL voltage -32 -128 R0
WINDOW 123 0 0 Left 2
WINDOW 39 0 0 Left 2
SYMATTR InstName Vds1
SYMATTR Value -15
SYMBOL nmos 384 -80 R0
SYMATTR InstName M3
SYMATTR Value 2n7000
SYMATTR Prefix X
SYMBOL res 416 -208 R0
SYMATTR InstName R2
SYMATTR Value 10k
TEXT -160 472 Left 2 ;.dc Vgs 1.9 3.1 0.01m
TEXT -152 448 Left 2 !.include 2N7000.REV0.SP
TEXT -160 496 Left 2 !.op
TEXT -144 -528 Left 2 !.step param r list 1k 5k 10k
