Version 4
SHEET 1 2196 792
WIRE 208 -192 208 -224
WIRE -272 -112 -272 -144
WIRE -160 -112 -160 -144
WIRE 208 -64 208 -112
WIRE 320 -64 208 -64
WIRE 448 -64 384 -64
WIRE 208 -48 208 -64
WIRE 448 -16 448 -64
WIRE -272 0 -272 -32
WIRE -160 0 -160 -32
WIRE 160 32 64 32
WIRE 64 128 64 112
WIRE 208 144 208 48
WIRE 32 224 -256 224
WIRE 160 224 112 224
WIRE 208 272 208 240
WIRE 352 272 208 272
WIRE 352 288 352 272
WIRE 352 368 352 352
WIRE 352 464 352 448
WIRE 16 480 16 464
WIRE 96 480 16 480
WIRE 16 496 16 480
WIRE 208 496 208 272
WIRE -256 528 -256 224
WIRE -240 528 -256 528
WIRE -256 560 -256 528
WIRE 96 576 96 480
WIRE 96 576 64 576
WIRE 160 576 96 576
WIRE 16 640 16 592
WIRE 208 640 208 592
WIRE -256 688 -256 640
FLAG -256 688 0
FLAG -160 0 0
FLAG -160 -144 Vdd
FLAG 208 -224 Vdd
FLAG 352 464 0
FLAG 64 128 0
FLAG -240 528 Input
FLAG -272 0 0
FLAG -272 -144 Vss
FLAG 16 384 Vdd
FLAG 16 640 Vss
FLAG 208 640 Vss
FLAG 448 64 0
SYMBOL voltage -256 544 R0
WINDOW 123 24 38 Left 2
WINDOW 39 0 0 Left 2
WINDOW 3 -18 197 Left 2
SYMATTR Value2 AC 100m
SYMATTR Value SINE(0 100m 1k)
SYMATTR InstName Vgs
SYMBOL voltage -160 -128 R0
WINDOW 123 0 0 Left 2
WINDOW 39 0 0 Left 2
SYMATTR InstName Vds
SYMATTR Value 9
SYMBOL res 192 -208 R0
SYMATTR InstName Rd
SYMATTR Value 1k
SYMBOL voltage 64 16 R0
WINDOW 0 -82 18 Left 2
WINDOW 123 0 0 Left 2
WINDOW 39 0 0 Left 2
SYMATTR InstName Vbias
SYMATTR Value 3
SYMBOL battery 128 224 R90
WINDOW 0 -32 56 VBottom 2
WINDOW 3 32 56 VTop 2
SYMATTR InstName Vbias1
SYMATTR Value 0
SYMBOL nmos 160 144 R0
SYMATTR InstName Mcasc1
SYMATTR Value 2n7000
SYMATTR Prefix X
SYMBOL nmos 160 -48 R0
SYMATTR InstName Mcasc
SYMATTR Value 2n7000
SYMATTR Prefix X
SYMBOL cap 336 288 R0
SYMATTR InstName C1
SYMATTR Value 10µ
SYMBOL res 336 352 R0
SYMATTR InstName R1
SYMATTR Value 1k
SYMBOL voltage -272 -128 R0
WINDOW 123 0 0 Left 2
WINDOW 39 0 0 Left 2
SYMATTR InstName Vds1
SYMATTR Value -9
SYMBOL nmos 160 496 R0
SYMATTR InstName Mcasc2
SYMATTR Value 2n7000
SYMATTR Prefix X
SYMBOL nmos 64 496 M0
SYMATTR InstName Mcasc3
SYMATTR Value 2n7000
SYMATTR Prefix X
SYMBOL res 0 368 R0
SYMATTR InstName R2
SYMATTR Value 15.5k
SYMBOL cap 384 -80 R90
WINDOW 0 0 32 VBottom 2
WINDOW 3 32 32 VTop 2
SYMATTR InstName C2
SYMATTR Value 47µ
SYMBOL res 432 -32 R0
SYMATTR InstName R3
SYMATTR Value 1k
TEXT 432 -184 Left 2 ;.dc Vgs 1.2 3.6 0.001
TEXT 424 -224 Left 2 !.include 2N7000.REV0.SP
TEXT 432 -136 Left 2 !.tran 0 10m 5m
TEXT 520 -72 Left 2 ;.ac dec 100 1 100k
TEXT -264 776 Left 2 ;PULSE(0 1 0 .5m .5m 1e-10 1m 1000)
