Version 4
SHEET 1 1940 1168
WIRE 208 -208 208 -224
WIRE -32 -192 -32 -224
WIRE 1088 -128 1088 -160
WIRE 1184 -128 1184 -160
WIRE 208 -112 208 -128
WIRE 352 -112 208 -112
WIRE 208 -96 208 -112
WIRE -32 -16 -32 -112
WIRE 160 -16 -32 -16
WIRE 1088 -16 1088 -48
WIRE 1184 -16 1184 -48
WIRE -32 0 -32 -16
WIRE 208 64 208 0
WIRE 720 64 208 64
WIRE 1232 64 720 64
WIRE 16 80 16 48
WIRE 16 80 -32 80
WIRE -32 96 -32 80
WIRE 1104 176 1104 128
WIRE 80 192 80 128
WIRE 592 192 592 128
WIRE 208 240 208 64
WIRE 720 240 720 64
WIRE 1232 240 1232 64
WIRE -64 320 -128 320
WIRE 80 320 80 272
WIRE 80 320 0 320
WIRE 160 320 80 320
WIRE 480 320 416 320
WIRE 592 320 592 272
WIRE 592 320 544 320
WIRE 672 320 592 320
WIRE 1008 320 928 320
WIRE 1104 320 1104 256
WIRE 1104 320 1072 320
WIRE 1184 320 1104 320
WIRE 80 336 80 320
WIRE 592 336 592 320
WIRE 1104 336 1104 320
WIRE 80 432 80 416
WIRE 128 432 128 384
WIRE 128 432 80 432
WIRE 592 432 592 416
WIRE 640 432 640 384
WIRE 640 432 592 432
WIRE 1104 432 1104 416
WIRE 1152 432 1152 384
WIRE 1152 432 1104 432
WIRE 80 448 80 432
WIRE 592 448 592 432
WIRE 1104 448 1104 432
WIRE 208 496 208 336
WIRE 224 496 208 496
WIRE 304 496 288 496
WIRE 1232 496 1232 336
WIRE 1248 496 1232 496
WIRE 1328 496 1312 496
WIRE 32 512 32 480
WIRE 544 512 544 480
WIRE 720 512 720 336
WIRE 736 512 720 512
WIRE 816 512 800 512
WIRE 1056 512 1056 480
WIRE 304 528 304 496
WIRE 1328 528 1328 496
WIRE 816 544 816 512
WIRE 32 624 32 592
WIRE 96 624 32 624
WIRE 304 624 304 608
WIRE 352 624 352 576
WIRE 352 624 304 624
WIRE 544 624 544 592
WIRE 608 624 544 624
WIRE 1056 624 1056 592
WIRE 1120 624 1056 624
WIRE 1328 624 1328 608
WIRE 1376 624 1376 576
WIRE 1376 624 1328 624
WIRE 32 640 32 624
WIRE 208 640 208 496
WIRE 304 640 304 624
WIRE 544 640 544 624
WIRE 720 640 720 512
WIRE 816 640 816 624
WIRE 864 640 864 592
WIRE 864 640 816 640
WIRE 1056 640 1056 624
WIRE 1232 640 1232 496
WIRE 1328 640 1328 624
WIRE 816 656 816 640
WIRE 96 720 96 624
WIRE 96 720 80 720
WIRE 160 720 96 720
WIRE 608 720 608 624
WIRE 608 720 592 720
WIRE 672 720 608 720
WIRE 1120 720 1120 624
WIRE 1120 720 1104 720
WIRE 1184 720 1120 720
WIRE 32 784 32 736
WIRE 208 784 208 736
WIRE 544 784 544 736
WIRE 720 784 720 736
WIRE 1056 784 1056 736
WIRE 1232 784 1232 736
FLAG 1088 -16 0
FLAG 1088 -160 Vdd
FLAG 208 -224 Vdd
FLAG 1184 -16 0
FLAG 1184 -160 Vss
FLAG 32 480 Vdd
FLAG 32 784 Vss
FLAG 208 784 Vss
FLAG 544 480 Vdd
FLAG 544 784 Vss
FLAG 720 784 Vss
FLAG 1056 480 Vdd
FLAG 1056 784 Vss
FLAG 1232 784 Vss
FLAG 304 640 0
FLAG 816 656 0
FLAG 1328 640 0
FLAG 80 128 Vdd
FLAG 592 128 Vdd
FLAG 1104 128 Vdd
FLAG -32 -224 Vdd
FLAG 80 448 0
FLAG 592 448 0
FLAG 1104 448 0
FLAG -32 96 0
FLAG 352 -112 output
FLAG -128 320 input
FLAG 416 320 input
FLAG 928 320 input
SYMBOL nmos 160 240 R0
SYMATTR InstName M1
SYMATTR Value 2n7000
SYMATTR Prefix X
SYMBOL voltage 1088 -144 R0
WINDOW 123 0 0 Left 2
WINDOW 39 0 0 Left 2
SYMATTR InstName Vdd
SYMATTR Value 9
SYMBOL res 192 -224 R0
SYMATTR InstName Rd1
SYMATTR Value 800
SYMBOL nmos 160 -96 R0
SYMATTR InstName Mcasc
SYMATTR Value 2n7000
SYMATTR Prefix X
SYMBOL nmos 160 640 R0
SYMATTR InstName Mmirror2
SYMATTR Value 2n7000
SYMATTR Prefix X
SYMBOL nmos 80 640 M0
SYMATTR InstName Mmirror1
SYMATTR Value 2n7000
SYMATTR Prefix X
SYMBOL voltage 1184 -144 R0
WINDOW 123 0 0 Left 2
WINDOW 39 0 0 Left 2
SYMATTR InstName Vss
SYMATTR Value -9
SYMBOL res 16 496 R0
SYMATTR InstName Rd1
SYMATTR Value 15.5k
SYMBOL nmos 672 240 R0
SYMATTR InstName M2
SYMATTR Value 2n7000
SYMATTR Prefix X
SYMBOL nmos 672 640 R0
WINDOW 0 56 39 Left 2
SYMATTR InstName Mmirror3
SYMATTR Value 2n7000
SYMATTR Prefix X
SYMBOL nmos 592 640 M0
SYMATTR InstName Mmirror4
SYMATTR Value 2n7000
SYMATTR Prefix X
SYMBOL res 528 496 R0
SYMATTR InstName Rd2
SYMATTR Value 15.5k
SYMBOL nmos 1184 240 R0
SYMATTR InstName M3
SYMATTR Value 2n7000
SYMATTR Prefix X
SYMBOL nmos 1184 640 R0
SYMATTR InstName Mmirror5
SYMATTR Value 2n7000
SYMATTR Prefix X
SYMBOL nmos 1104 640 M0
SYMATTR InstName Mmirror6
SYMATTR Value 2n7000
SYMATTR Prefix X
SYMBOL res 1040 496 R0
SYMATTR InstName Rd3
SYMATTR Value 15.5k
SYMBOL cap 288 480 R90
WINDOW 0 0 32 VBottom 2
WINDOW 3 32 32 VTop 2
SYMATTR InstName C1
SYMATTR Value 47µ
SYMBOL cap 800 496 R90
WINDOW 0 0 32 VBottom 2
WINDOW 3 32 32 VTop 2
SYMATTR InstName C2
SYMATTR Value 47µ
SYMBOL cap 1312 480 R90
WINDOW 0 0 32 VBottom 2
WINDOW 3 32 32 VTop 2
SYMATTR InstName C3
SYMATTR Value 47µ
SYMBOL res -48 -208 R0
SYMATTR InstName R4
SYMATTR Value 500k
SYMBOL res 576 176 R0
SYMATTR InstName R6
SYMATTR Value 500k
SYMBOL res 1088 160 R0
SYMATTR InstName R7
SYMATTR Value 500k
SYMBOL res 64 176 R0
SYMATTR InstName R8
SYMATTR Value 500k
SYMBOL pot 64 320 R0
WINDOW 3 -225 91 Left 2
SYMATTR Value Rtot=500K wiper=.5
SYMATTR InstName U1
SYMBOL pot 576 320 R0
WINDOW 3 -223 92 Left 2
SYMATTR Value Rtot=500K wiper=.5
SYMATTR InstName U2
SYMBOL pot 1088 320 R0
WINDOW 3 -232 86 Left 2
SYMATTR Value Rtot=500K wiper=.5
SYMATTR InstName U3
SYMBOL pot -48 -16 R0
WINDOW 3 -137 157 Left 2
SYMATTR Value Rtot=500K wiper=.5
SYMATTR InstName U4
SYMBOL cap 0 304 R90
WINDOW 0 0 32 VBottom 2
WINDOW 3 32 32 VTop 2
SYMATTR InstName C4
SYMATTR Value 680n
SYMBOL cap 544 304 R90
WINDOW 0 0 32 VBottom 2
WINDOW 3 32 32 VTop 2
SYMATTR InstName C5
SYMATTR Value 680n
SYMBOL cap 1072 304 R90
WINDOW 0 0 32 VBottom 2
WINDOW 3 32 32 VTop 2
SYMATTR InstName C6
SYMATTR Value 680n
SYMBOL pot 288 512 R0
WINDOW 3 24 3 Left 2
SYMATTR Value Rtot=2K wiper=.5
SYMATTR InstName Rf1
SYMBOL pot 800 528 R0
WINDOW 3 34 8 Left 2
SYMATTR Value Rtot=2K wiper=.5
SYMATTR InstName Rf2
SYMBOL pot 1312 512 R0
WINDOW 3 33 6 Left 2
SYMATTR Value Rtot=2K wiper=.5
SYMATTR InstName Rf3
